# pbe1pbe/gen scf=maxcycle=500

7 5 5 6 7 6 1 1 1 1 1 1

0 1
7 0.0 1.394991 0.0
5 1.208097 0.697495 0.0
5 1.208097 -0.697495 0.0
6 0.0 -1.394991 0.0
7 -1.208097 -0.697495 0.0
6 -1.208097 0.697495 0.0
1 0.0 2.494601 0.0
1 2.160388 1.2473 0.0
1 2.160388 -1.2473 0.0
1 0.0 -2.494601 0.0
1 -2.160388 -1.2473 0.0
1 -2.160388 1.2473 0.0

H     0
S    4   1.00
      0.754230D+02           0.240650D-02
      0.113500D+02           0.184870D-01
      0.259930D+01           0.897420D-01
      0.735130D+00           0.281110D+00
S    1   1.00
      0.231670D+00           0.100000D+01
S    1   1.00
      0.741470D-01           0.100000D+01
P    1   1.00
      0.160000D+01           0.100000D+01
P    1   1.00
      0.450000D+00           0.100000D+01
D    1   1.00
      0.125000D+01           0.100000D+01
****
B     0
S    1   1.00
      0.640449D+04           1.0000000
S    1   1.00
      0.960784D+03           1.0000000
S    1   1.00
      0.218736D+03           1.0000000
S    1   1.00
      0.619113D+02           1.0000000
S    1   1.00
      0.199987D+02           1.0000000
S    1   1.00
      0.700295D+01           1.0000000
S    1   1.00
      0.253189D+01           1.0000000
S    1   1.00
      0.650473D+00           1.0000000
S    1   1.00
      0.266780D+00           1.0000000
S    1   1.00
      0.942270D-01           1.0000000
P    1   1.00
      0.271409D+02           1.0000000
P    1   1.00
      0.612873D+01           1.0000000
P    1   1.00
      0.176766D+01           1.0000000
P    1   1.00
      0.604162D+00           1.0000000
P    1   1.00
      0.207538D+00           1.0000000
P    1   1.00
      0.676074D-01           1.0000000
D    1   1.00
      0.121244D+01           1.0000000
D    1   1.00
      0.396863D+00           1.0000000
F    1   1.00
      0.909120D+00           1.0000000
****
C     0
S    1   1.00
      0.933941D+04           1.0000000
S    1   1.00
      0.140098D+04           1.0000000
S    1   1.00
      0.318932D+03           1.0000000
S    1   1.00
      0.902733D+02           1.0000000
S    1   1.00
      0.292120D+02           1.0000000
S    1   1.00
      0.102764D+02           1.0000000
S    1   1.00
      0.374099D+01           1.0000000
S    1   1.00
      0.100976D+01           1.0000000
S    1   1.00
      0.401165D+00           1.0000000
S    1   1.00
      0.137461D+00           1.0000000
P    1   1.00
      0.402364D+02           1.0000000
P    1   1.00
      0.918901D+01           1.0000000
P    1   1.00
      0.269439D+01           1.0000000
P    1   1.00
      0.921743D+00           1.0000000
P    1   1.00
      0.315677D+00           1.0000000
P    1   1.00
      0.101064D+00           1.0000000
D    1   1.00
      0.158745D+01           1.0000000
D    1   1.00
      0.497494D+00           1.0000000
F    1   1.00
      0.984378D+00           1.0000000
****
N     0
S    1   1.00
      0.128103D+05           1.0000000
S    1   1.00
      0.192156D+04           1.0000000
S    1   1.00
      0.437423D+03           1.0000000
S    1   1.00
      0.123816D+03           1.0000000
S    1   1.00
      0.401100D+02           1.0000000
S    1   1.00
      0.141465D+02           1.0000000
S    1   1.00
      0.517389D+01           1.0000000
S    1   1.00
      0.144002D+01           1.0000000
S    1   1.00
      0.561409D+00           1.0000000
S    1   1.00
      0.188995D+00           1.0000000
P    1   1.00
      0.538179D+02           1.0000000
P    1   1.00
      0.123805D+02           1.0000000
P    1   1.00
      0.367236D+01           1.0000000
P    1   1.00
      0.125438D+01           1.0000000
P    1   1.00
      0.425006D+00           1.0000000
P    1   1.00
      0.132414D+00           1.0000000
D    1   1.00
      0.198997D+01           1.0000000
D    1   1.00
      0.597913D+00           1.0000000
F    1   1.00
      0.105925D+01           1.0000000
****


